SUMMARY OF JOB INFORMATION
  STEP      INC     ATT  ITRS     TOT TIME     STEP TIME      INC TIME
     1          1     1     5  0.500000E-01  0.500000E-01  0.500000E-01
     1          2     1     6  0.100000E+00  0.100000E+00  0.500000E-01
     1          3     1     6  0.150000E+00  0.150000E+00  0.500000E-01
     1          4     1     6  0.200000E+00  0.200000E+00  0.500000E-01
     1          5     1     6  0.250000E+00  0.250000E+00  0.500000E-01
     1          6     1     6  0.300000E+00  0.300000E+00  0.500000E-01
     1          7     1     6  0.350000E+00  0.350000E+00  0.500000E-01
     1          8     1     5  0.400000E+00  0.400000E+00  0.500000E-01
     1          9     1     5  0.450000E+00  0.450000E+00  0.500000E-01
     1         10     1     4  0.500000E+00  0.500000E+00  0.500000E-01
     1         11     1     3  0.550000E+00  0.550000E+00  0.500000E-01
     1         12     1     4  0.625000E+00  0.625000E+00  0.750000E-01
     1         13     1     5  0.737500E+00  0.737500E+00  0.112500E+00
     1         14     1     5  0.850000E+00  0.850000E+00  0.112500E+00
     1         15     1     3  0.962500E+00  0.962500E+00  0.112500E+00
     1         16     1     3  0.100000E+01  0.100000E+01  0.375000E-01
